topology_creation/OpenDSS_data/OBJECT_LV_1.dss
new load.LOADLVN_1_1 phases=3 bus1=LVN_1_b3.1.2.3 kV=0.4 model=2 conn=wye kW=1  pf=0.98 daily=Shape_1 vminpu=0.3 vmaxpu=1.5 
new load.LOADLVN_1_2 phases=3 bus1=LVN_1_b24.1.2.3 kV=0.4 model=2 conn=wye kW=1 pf=0.98 daily=Shape_2 vminpu=0.3 vmaxpu=1.5 
new load.LOADLVN_1_3 phases=3 bus1=LVN_1_b29.1.2.3 kV=0.4 model=2 conn=wye kW=1 pf=0.98 daily=Shape_3 vminpu=0.3 vmaxpu=1.5 
new load.LOADLVN_1_4 phases=3 bus1=LVN_1_b30.1.2.3 kV=0.4 model=2 conn=wye kW=1 pf=0.98 daily=Shape_4 vminpu=0.3 vmaxpu=1.5 
new load.LOADLVN_1_5 phases=3 bus1=LVN_1_b38.1.2.3 kV=0.4 model=2 conn=wye kW=1 pf=0.98 daily=Shape_5 vminpu=0.3 vmaxpu=1.5 
new load.LOADLVN_1_6 phases=3 bus1=LVN_1_b34.1.2.3 kV=0.4 model=2 conn=wye kW=1 pf=0.98 daily=Shape_6 vminpu=0.3 vmaxpu=1.5 
new load.LOADLVN_1_7 phases=3 bus1=LVN_1_b44.1.2.3 kV=0.4 model=2 conn=wye kW=1 pf=0.98 daily=Shape_7 vminpu=0.3 vmaxpu=1.5 
new load.LOADLVN_1_8 phases=3 bus1=LVN_1_b51.1.2.3 kV=0.4 model=2 conn=wye kW=1 pf=0.98 daily=Shape_8 vminpu=0.3 vmaxpu=1.5 
new load.LOADLVN_1_9 phases=3 bus1=LVN_1_b54.1.2.3 kV=0.4 model=2 conn=wye kW=1 pf=0.98 daily=Shape_9 vminpu=0.3 vmaxpu=1.5 
new load.LOADLVN_1_10 phases=3 bus1=LVN_1_b62.1.2.3 kV=0.4 model=2 conn=wye kW=1 pf=0.98 daily=Shape_10 vminpu=0.3 vmaxpu=1.5 
new load.LOADLVN_1_11 phases=3 bus1=LVN_1_b69.1.2.3 kV=0.4 model=2 conn=wye kW=1 pf=0.98 daily=Shape_11 vminpu=0.3 vmaxpu=1.5 
new load.LOADLVN_1_12 phases=3 bus1=LVN_1_b74.1.2.3 kV=0.4 model=2 conn=wye kW=1 pf=0.98 daily=Shape_12 vminpu=0.3 vmaxpu=1.5 
new load.LOADLVN_1_13 phases=3 bus1=LVN_1_b77.1.2.3 kV=0.4 model=2 conn=wye kW=1 pf=0.98 daily=Shape_13 vminpu=0.3 vmaxpu=1.5 
new load.LOADLVN_1_14 phases=3 bus1=LVN_1_b98.1.2.3 kV=0.4 model=2 conn=wye kW=1 pf=0.98 daily=Shape_14 vminpu=0.3 vmaxpu=1.5 
new load.LOADLVN_1_15 phases=3 bus1=LVN_1_b99.1.2.3 kV=0.4 model=2 conn=wye kW=1 pf=0.98 daily=Shape_15 vminpu=0.3 vmaxpu=1.5 
new load.LOADLVN_1_16 phases=3 bus1=LVN_1_b103.1.2.3 kV=0.4 model=2 conn=wye kW=1 pf=0.98 daily=Shape_16 vminpu=0.3 vmaxpu=1.5 
new load.LOADLVN_1_17 phases=3 bus1=LVN_1_b108.1.2.3 kV=0.4 model=2 conn=wye kW=1 pf=0.98 daily=Shape_17 vminpu=0.3 vmaxpu=1.5 
new load.LOADLVN_1_18 phases=3 bus1=LVN_1_b111.1.2.3 kV=0.4 model=2 conn=wye kW=1 pf=0.98 daily=Shape_18 vminpu=0.3 vmaxpu=1.5 
new load.LOADLVN_1_19 phases=3 bus1=LVN_1_b127.1.2.3 kV=0.4 model=2 conn=wye kW=1 pf=0.98 daily=Shape_19 vminpu=0.3 vmaxpu=1.5 
new load.LOADLVN_1_20 phases=3 bus1=LVN_1_b130.1.2.3 kV=0.4 model=2 conn=wye kW=1 pf=0.98 daily=Shape_20 vminpu=0.3 vmaxpu=1.5 
new load.LOADLVN_1_21 phases=3 bus1=LVN_1_b149.1.2.3 kV=0.4 model=2 conn=wye kW=1 pf=0.98 daily=Shape_21 vminpu=0.3 vmaxpu=1.5 
new load.LOADLVN_1_22 phases=3 bus1=LVN_1_b148.1.2.3 kV=0.4 model=2 conn=wye kW=1 pf=0.98 daily=Shape_22 vminpu=0.3 vmaxpu=1.5 
new load.LOADLVN_1_23 phases=3 bus1=LVN_1_b154.1.2.3 kV=0.4 model=2 conn=wye kW=1 pf=0.98 daily=Shape_23 vminpu=0.3 vmaxpu=1.5 
new load.LOADLVN_1_24 phases=3 bus1=LVN_1_b160.1.2.3 kV=0.4 model=2 conn=wye kW=1 pf=0.98 daily=Shape_24 vminpu=0.3 vmaxpu=1.5 
new load.LOADLVN_1_25 phases=3 bus1=LVN_1_b179.1.2.3 kV=0.4 model=2 conn=wye kW=1 pf=0.98 daily=Shape_25 vminpu=0.3 vmaxpu=1.5 
new load.LOADLVN_1_26 phases=3 bus1=LVN_1_b165.1.2.3 kV=0.4 model=2 conn=wye kW=1 pf=0.98 daily=Shape_26 vminpu=0.3 vmaxpu=1.5 
new load.LOADLVN_1_27 phases=3 bus1=LVN_1_b183.1.2.3 kV=0.4 model=2 conn=wye kW=1 pf=0.98 daily=Shape_27 vminpu=0.3 vmaxpu=1.5 
new load.LOADLVN_1_28 phases=3 bus1=LVN_1_b188.1.2.3 kV=0.4 model=2 conn=wye kW=1 pf=0.98 daily=Shape_28 vminpu=0.3 vmaxpu=1.5 
new load.LOADLVN_1_29 phases=3 bus1=LVN_1_b200.1.2.3 kV=0.4 model=2 conn=wye kW=1 pf=0.98 daily=Shape_29 vminpu=0.3 vmaxpu=1.5 
new load.LOADLVN_1_30 phases=3 bus1=LVN_1_b191.1.2.3 kV=0.4 model=2 conn=wye kW=1 pf=0.98 daily=Shape_30 vminpu=0.3 vmaxpu=1.5 
new load.LOADLVN_1_31 phases=3 bus1=LVN_1_b205.1.2.3 kV=0.4 model=2 conn=wye kW=1 pf=0.98 daily=Shape_31 vminpu=0.3 vmaxpu=1.5 
new load.LOADLVN_1_32 phases=3 bus1=LVN_1_b206.1.2.3 kV=0.4 model=2 conn=wye kW=1 pf=0.98 daily=Shape_32 vminpu=0.3 vmaxpu=1.5 
new load.LOADLVN_1_33 phases=3 bus1=LVN_1_b214.1.2.3 kV=0.4 model=2 conn=wye kW=1 pf=0.98 daily=Shape_33 vminpu=0.3 vmaxpu=1.5 
new load.LOADLVN_1_34 phases=3 bus1=LVN_1_b218.1.2.3 kV=0.4 model=2 conn=wye kW=1 pf=0.98 daily=Shape_34 vminpu=0.3 vmaxpu=1.5 
new load.LOADLVN_1_35 phases=3 bus1=LVN_1_b228.1.2.3 kV=0.4 model=2 conn=wye kW=1 pf=0.98 daily=Shape_35 vminpu=0.3 vmaxpu=1.5 
new load.LOADLVN_1_36 phases=3 bus1=LVN_1_b235.1.2.3 kV=0.4 model=2 conn=wye kW=1 pf=0.98 daily=Shape_36 vminpu=0.3 vmaxpu=1.5 
new load.LOADLVN_1_37 phases=3 bus1=LVN_1_b242.1.2.3 kV=0.4 model=2 conn=wye kW=1 pf=0.98 daily=Shape_37 vminpu=0.3 vmaxpu=1.5 
new load.LOADLVN_1_38 phases=3 bus1=LVN_1_b244.1.2.3 kV=0.4 model=2 conn=wye kW=1 pf=0.98 daily=Shape_38 vminpu=0.3 vmaxpu=1.5 
new load.LOADLVN_1_39 phases=3 bus1=LVN_1_b248.1.2.3 kV=0.4 model=2 conn=wye kW=1 pf=0.98 daily=Shape_39 vminpu=0.3 vmaxpu=1.5 
new load.LOADLVN_1_40 phases=3 bus1=LVN_1_b253.1.2.3 kV=0.4 model=2 conn=wye kW=1 pf=0.98 daily=Shape_40 vminpu=0.3 vmaxpu=1.5 
new load.LOADLVN_1_41 phases=3 bus1=LVN_1_b254.1.2.3 kV=0.4 model=2 conn=wye kW=1 pf=0.98 daily=Shape_41 vminpu=0.3 vmaxpu=1.5 
new load.LOADLVN_1_42 phases=3 bus1=LVN_1_b265.1.2.3 kV=0.4 model=2 conn=wye kW=1 pf=0.98 daily=Shape_42 vminpu=0.3 vmaxpu=1.5 
new load.LOADLVN_1_43 phases=3 bus1=LVN_1_b259.1.2.3 kV=0.4 model=2 conn=wye kW=1 pf=0.98 daily=Shape_43 vminpu=0.3 vmaxpu=1.5 
new load.LOADLVN_1_44 phases=3 bus1=LVN_1_b285.1.2.3 kV=0.4 model=2 conn=wye kW=1 pf=0.98 daily=Shape_44 vminpu=0.3 vmaxpu=1.5 
new load.LOADLVN_1_45 phases=3 bus1=LVN_1_b288.1.2.3 kV=0.4 model=2 conn=wye kW=1 pf=0.98 daily=Shape_45 vminpu=0.3 vmaxpu=1.5 
new load.LOADLVN_1_46 phases=3 bus1=LVN_1_b287.1.2.3 kV=0.4 model=2 conn=wye kW=1 pf=0.98 daily=Shape_46 vminpu=0.3 vmaxpu=1.5 
new load.LOADLVN_1_47 phases=3 bus1=LVN_1_b290.1.2.3 kV=0.4 model=2 conn=wye kW=1 pf=0.98 daily=Shape_47 vminpu=0.3 vmaxpu=1.5 
new load.LOADLVN_1_48 phases=3 bus1=LVN_1_b298.1.2.3 kV=0.4 model=2 conn=wye kW=1 pf=0.98 daily=Shape_48 vminpu=0.3 vmaxpu=1.5 
new load.LOADLVN_1_49 phases=3 bus1=LVN_1_b306.1.2.3 kV=0.4 model=2 conn=wye kW=1 pf=0.98 daily=Shape_49 vminpu=0.3 vmaxpu=1.5 
new load.LOADLVN_1_50 phases=3 bus1=LVN_1_b312.1.2.3 kV=0.4 model=2 conn=wye kW=1 pf=0.98 daily=Shape_50 vminpu=0.3 vmaxpu=1.5 
new load.LOADLVN_1_51 phases=3 bus1=LVN_1_b317.1.2.3 kV=0.4 model=2 conn=wye kW=1 pf=0.98 daily=Shape_51 vminpu=0.3 vmaxpu=1.5 
new load.LOADLVN_1_52 phases=3 bus1=LVN_1_b361.1.2.3 kV=0.4 model=2 conn=wye kW=1 pf=0.98 daily=Shape_52 vminpu=0.3 vmaxpu=1.5 
new load.LOADLVN_1_53 phases=3 bus1=LVN_1_b354.1.2.3 kV=0.4 model=2 conn=wye kW=1 pf=0.98 daily=Shape_53 vminpu=0.3 vmaxpu=1.5 
new load.LOADLVN_1_54 phases=3 bus1=LVN_1_b357.1.2.3 kV=0.4 model=2 conn=wye kW=1 pf=0.98 daily=Shape_54 vminpu=0.3 vmaxpu=1.5 
new load.LOADLVN_1_55 phases=3 bus1=LVN_1_b371.1.2.3 kV=0.4 model=2 conn=wye kW=1 pf=0.98 daily=Shape_55 vminpu=0.3 vmaxpu=1.5 
new load.LOADLVN_1_56 phases=3 bus1=LVN_1_b367.1.2.3 kV=0.4 model=2 conn=wye kW=1 pf=0.98 daily=Shape_56 vminpu=0.3 vmaxpu=1.5 
new load.LOADLVN_1_57 phases=3 bus1=LVN_1_b363.1.2.3 kV=0.4 model=2 conn=wye kW=1 pf=0.98 daily=Shape_57 vminpu=0.3 vmaxpu=1.5 
new load.LOADLVN_1_58 phases=3 bus1=LVN_1_b277.1.2.3 kV=0.4 model=2 conn=wye kW=1 pf=0.98 daily=Shape_58 vminpu=0.3 vmaxpu=1.5 
new load.LOADLVN_1_59 phases=3 bus1=LVN_1_b281.1.2.3 kV=0.4 model=2 conn=wye kW=1 pf=0.98 daily=Shape_59 vminpu=0.3 vmaxpu=1.5 
new load.LOADLVN_1_60 phases=3 bus1=LVN_1_b299.1.2.3 kV=0.4 model=2 conn=wye kW=1 pf=0.98 daily=Shape_60 vminpu=0.3 vmaxpu=1.5 
new load.LOADLVN_1_61 phases=3 bus1=LVN_1_b304.1.2.3 kV=0.4 model=2 conn=wye kW=1 pf=0.98 daily=Shape_61 vminpu=0.3 vmaxpu=1.5 
new load.LOADLVN_1_62 phases=3 bus1=LVN_1_b322.1.2.3 kV=0.4 model=2 conn=wye kW=1 pf=0.98 daily=Shape_62 vminpu=0.3 vmaxpu=1.5 
new load.LOADLVN_1_63 phases=3 bus1=LVN_1_b337.1.2.3 kV=0.4 model=2 conn=wye kW=1 pf=0.98 daily=Shape_63 vminpu=0.3 vmaxpu=1.5 
new load.LOADLVN_1_64 phases=3 bus1=LVN_1_b338.1.2.3 kV=0.4 model=2 conn=wye kW=1 pf=0.98 daily=Shape_64 vminpu=0.3 vmaxpu=1.5 
new load.LOADLVN_1_65 phases=3 bus1=LVN_1_b343.1.2.3 kV=0.4 model=2 conn=wye kW=1 pf=0.98 daily=Shape_65 vminpu=0.3 vmaxpu=1.5 
new load.LOADLVN_1_66 phases=3 bus1=LVN_1_b345.1.2.3 kV=0.4 model=2 conn=wye kW=1 pf=0.98 daily=Shape_66 vminpu=0.3 vmaxpu=1.5 
new load.LOADLVN_1_67 phases=3 bus1=LVN_1_b346.1.2.3 kV=0.4 model=2 conn=wye kW=1 pf=0.98 daily=Shape_67 vminpu=0.3 vmaxpu=1.5 
new load.LOADLVN_1_68 phases=3 bus1=LVN_1_b374.1.2.3 kV=0.4 model=2 conn=wye kW=1 pf=0.98 daily=Shape_68 vminpu=0.3 vmaxpu=1.5 
new load.LOADLVN_1_69 phases=3 bus1=LVN_1_b375.1.2.3 kV=0.4 model=2 conn=wye kW=1 pf=0.98 daily=Shape_69 vminpu=0.3 vmaxpu=1.5 
new load.LOADLVN_1_70 phases=3 bus1=LVN_1_b379.1.2.3 kV=0.4 model=2 conn=wye kW=1 pf=0.98 daily=Shape_70 vminpu=0.3 vmaxpu=1.5 
new load.LOADLVN_1_71 phases=3 bus1=LVN_1_b382.1.2.3 kV=0.4 model=2 conn=wye kW=1 pf=0.98 daily=Shape_71 vminpu=0.3 vmaxpu=1.5 
new load.LOADLVN_1_72 phases=3 bus1=LVN_1_b135.1.2.3 kV=0.4 model=2 conn=wye kW=1 pf=0.98 daily=Shape_72 vminpu=0.3 vmaxpu=1.5 
new load.LOADLVN_1_73 phases=3 bus1=LVN_1_b136.1.2.3 kV=0.4 model=2 conn=wye kW=1 pf=0.98 daily=Shape_73 vminpu=0.3 vmaxpu=1.5 
new load.LOADLVN_1_74 phases=3 bus1=LVN_1_b167.1.2.3 kV=0.4 model=2 conn=wye kW=1 pf=0.98 daily=Shape_74 vminpu=0.3 vmaxpu=1.5 
new load.LOADLVN_1_75 phases=3 bus1=LVN_1_b174.1.2.3 kV=0.4 model=2 conn=wye kW=1 pf=0.98 daily=Shape_75 vminpu=0.3 vmaxpu=1.5 
new PVSystem.PVLVN_1_1 phases=3 bus1=LVN_1_b51.1.2.3 kV=0.4 kva=4.5 pf=1 pmpp=4.05 temperature=25 irrad=1 EFFCURVE=Myeff P-TCURVE=MyPvsT model=1 daily=PV_Shape_1_1 VarFollowInverter=yes %cutin=0.1 %cutout=0.1 TDaily=MyTemp
new PVSystem.PVLVN_1_2 phases=3 bus1=LVN_1_b160.1.2.3 kV=0.4 kva=8.5 pf=1 pmpp=7.65 temperature=25 irrad=1 EFFCURVE=Myeff P-TCURVE=MyPvsT model=1 daily=PV_Shape_1_1 VarFollowInverter=yes %cutin=0.1 %cutout=0.1 TDaily=MyTemp
new PVSystem.PVLVN_1_3 phases=3 bus1=LVN_1_b62.1.2.3 kV=0.4 kva=8.5 pf=1 pmpp=7.65 temperature=25 irrad=1 EFFCURVE=Myeff P-TCURVE=MyPvsT model=1 daily=PV_Shape_1_1 VarFollowInverter=yes %cutin=0.1 %cutout=0.1 TDaily=MyTemp
new PVSystem.PVLVN_1_4 phases=3 bus1=LVN_1_b108.1.2.3 kV=0.4 kva=8.5 pf=1 pmpp=7.65 temperature=25 irrad=1 EFFCURVE=Myeff P-TCURVE=MyPvsT model=1 daily=PV_Shape_1_1 VarFollowInverter=yes %cutin=0.1 %cutout=0.1 TDaily=MyTemp
new PVSystem.PVLVN_1_5 phases=3 bus1=LVN_1_b188.1.2.3 kV=0.4 kva=6.5 pf=1 pmpp=5.85 temperature=25 irrad=1 EFFCURVE=Myeff P-TCURVE=MyPvsT model=1 daily=PV_Shape_1_1 VarFollowInverter=yes %cutin=0.1 %cutout=0.1 TDaily=MyTemp
new PVSystem.PVLVN_1_6 phases=3 bus1=LVN_1_b111.1.2.3 kV=0.4 kva=7.5 pf=1 pmpp=6.75 temperature=25 irrad=1 EFFCURVE=Myeff P-TCURVE=MyPvsT model=1 daily=PV_Shape_1_1 VarFollowInverter=yes %cutin=0.1 %cutout=0.1 TDaily=MyTemp
new PVSystem.PVLVN_1_7 phases=3 bus1=LVN_1_b98.1.2.3 kV=0.4 kva=5.5 pf=1 pmpp=4.95 temperature=25 irrad=1 EFFCURVE=Myeff P-TCURVE=MyPvsT model=1 daily=PV_Shape_1_1 VarFollowInverter=yes %cutin=0.1 %cutout=0.1 TDaily=MyTemp
new PVSystem.PVLVN_1_8 phases=3 bus1=LVN_1_b290.1.2.3 kV=0.4 kva=6.5 pf=1 pmpp=5.85 temperature=25 irrad=1 EFFCURVE=Myeff P-TCURVE=MyPvsT model=1 daily=PV_Shape_1_1 VarFollowInverter=yes %cutin=0.1 %cutout=0.1 TDaily=MyTemp
new PVSystem.PVLVN_1_9 phases=3 bus1=LVN_1_b281.1.2.3 kV=0.4 kva=4.5 pf=1 pmpp=4.05 temperature=25 irrad=1 EFFCURVE=Myeff P-TCURVE=MyPvsT model=1 daily=PV_Shape_1_1 VarFollowInverter=yes %cutin=0.1 %cutout=0.1 TDaily=MyTemp
new PVSystem.PVLVN_1_10 phases=3 bus1=LVN_1_b77.1.2.3 kV=0.4 kva=7.5 pf=1 pmpp=6.75 temperature=25 irrad=1 EFFCURVE=Myeff P-TCURVE=MyPvsT model=1 daily=PV_Shape_1_1 VarFollowInverter=yes %cutin=0.1 %cutout=0.1 TDaily=MyTemp
new PVSystem.PVLVN_1_11 phases=3 bus1=LVN_1_b346.1.2.3 kV=0.4 kva=7.5 pf=1 pmpp=6.75 temperature=25 irrad=1 EFFCURVE=Myeff P-TCURVE=MyPvsT model=1 daily=PV_Shape_1_1 VarFollowInverter=yes %cutin=0.1 %cutout=0.1 TDaily=MyTemp
new PVSystem.PVLVN_1_12 phases=3 bus1=LVN_1_b357.1.2.3 kV=0.4 kva=3.5 pf=1 pmpp=3.15 temperature=25 irrad=1 EFFCURVE=Myeff P-TCURVE=MyPvsT model=1 daily=PV_Shape_1_1 VarFollowInverter=yes %cutin=0.1 %cutout=0.1 TDaily=MyTemp
new PVSystem.PVLVN_1_13 phases=3 bus1=LVN_1_b228.1.2.3 kV=0.4 kva=4.5 pf=1 pmpp=4.05 temperature=25 irrad=1 EFFCURVE=Myeff P-TCURVE=MyPvsT model=1 daily=PV_Shape_1_1 VarFollowInverter=yes %cutin=0.1 %cutout=0.1 TDaily=MyTemp
new PVSystem.PVLVN_1_14 phases=3 bus1=LVN_1_b174.1.2.3 kV=0.4 kva=4.5 pf=1 pmpp=4.05 temperature=25 irrad=1 EFFCURVE=Myeff P-TCURVE=MyPvsT model=1 daily=PV_Shape_1_1 VarFollowInverter=yes %cutin=0.1 %cutout=0.1 TDaily=MyTemp
new PVSystem.PVLVN_1_15 phases=3 bus1=LVN_1_b253.1.2.3 kV=0.4 kva=6.5 pf=1 pmpp=5.85 temperature=25 irrad=1 EFFCURVE=Myeff P-TCURVE=MyPvsT model=1 daily=PV_Shape_1_1 VarFollowInverter=yes %cutin=0.1 %cutout=0.1 TDaily=MyTemp
new PVSystem.PVLVN_1_16 phases=3 bus1=LVN_1_b99.1.2.3 kV=0.4 kva=7.5 pf=1 pmpp=6.75 temperature=25 irrad=1 EFFCURVE=Myeff P-TCURVE=MyPvsT model=1 daily=PV_Shape_1_1 VarFollowInverter=yes %cutin=0.1 %cutout=0.1 TDaily=MyTemp
new PVSystem.PVLVN_1_17 phases=3 bus1=LVN_1_b338.1.2.3 kV=0.4 kva=8.5 pf=1 pmpp=7.65 temperature=25 irrad=1 EFFCURVE=Myeff P-TCURVE=MyPvsT model=1 daily=PV_Shape_1_1 VarFollowInverter=yes %cutin=0.1 %cutout=0.1 TDaily=MyTemp
new PVSystem.PVLVN_1_18 phases=3 bus1=LVN_1_b343.1.2.3 kV=0.4 kva=3.5 pf=1 pmpp=3.15 temperature=25 irrad=1 EFFCURVE=Myeff P-TCURVE=MyPvsT model=1 daily=PV_Shape_1_1 VarFollowInverter=yes %cutin=0.1 %cutout=0.1 TDaily=MyTemp
new PVSystem.PVLVN_1_19 phases=3 bus1=LVN_1_b149.1.2.3 kV=0.4 kva=4.5 pf=1 pmpp=4.05 temperature=25 irrad=1 EFFCURVE=Myeff P-TCURVE=MyPvsT model=1 daily=PV_Shape_1_1 VarFollowInverter=yes %cutin=0.1 %cutout=0.1 TDaily=MyTemp
new PVSystem.PVLVN_1_20 phases=3 bus1=LVN_1_b148.1.2.3 kV=0.4 kva=5.5 pf=1 pmpp=4.95 temperature=25 irrad=1 EFFCURVE=Myeff P-TCURVE=MyPvsT model=1 daily=PV_Shape_1_1 VarFollowInverter=yes %cutin=0.1 %cutout=0.1 TDaily=MyTemp
new PVSystem.PVLVN_1_21 phases=3 bus1=LVN_1_b304.1.2.3 kV=0.4 kva=5.5 pf=1 pmpp=4.95 temperature=25 irrad=1 EFFCURVE=Myeff P-TCURVE=MyPvsT model=1 daily=PV_Shape_1_1 VarFollowInverter=yes %cutin=0.1 %cutout=0.1 TDaily=MyTemp
new PVSystem.PVLVN_1_22 phases=3 bus1=LVN_1_b214.1.2.3 kV=0.4 kva=5.5 pf=1 pmpp=4.95 temperature=25 irrad=1 EFFCURVE=Myeff P-TCURVE=MyPvsT model=1 daily=PV_Shape_1_1 VarFollowInverter=yes %cutin=0.1 %cutout=0.1 TDaily=MyTemp
new PVSystem.PVLVN_1_23 phases=3 bus1=LVN_1_b34.1.2.3 kV=0.4 kva=3.5 pf=1 pmpp=3.15 temperature=25 irrad=1 EFFCURVE=Myeff P-TCURVE=MyPvsT model=1 daily=PV_Shape_1_1 VarFollowInverter=yes %cutin=0.1 %cutout=0.1 TDaily=MyTemp
new PVSystem.PVLVN_1_24 phases=3 bus1=LVN_1_b363.1.2.3 kV=0.4 kva=7.5 pf=1 pmpp=6.75 temperature=25 irrad=1 EFFCURVE=Myeff P-TCURVE=MyPvsT model=1 daily=PV_Shape_1_1 VarFollowInverter=yes %cutin=0.1 %cutout=0.1 TDaily=MyTemp
new PVSystem.PVLVN_1_25 phases=3 bus1=LVN_1_b206.1.2.3 kV=0.4 kva=5.5 pf=1 pmpp=4.95 temperature=25 irrad=1 EFFCURVE=Myeff P-TCURVE=MyPvsT model=1 daily=PV_Shape_1_1 VarFollowInverter=yes %cutin=0.1 %cutout=0.1 TDaily=MyTemp
new PVSystem.PVLVN_1_26 phases=3 bus1=LVN_1_b127.1.2.3 kV=0.4 kva=7.5 pf=1 pmpp=6.75 temperature=25 irrad=1 EFFCURVE=Myeff P-TCURVE=MyPvsT model=1 daily=PV_Shape_1_1 VarFollowInverter=yes %cutin=0.1 %cutout=0.1 TDaily=MyTemp
new PVSystem.PVLVN_1_27 phases=3 bus1=LVN_1_b154.1.2.3 kV=0.4 kva=6.5 pf=1 pmpp=5.85 temperature=25 irrad=1 EFFCURVE=Myeff P-TCURVE=MyPvsT model=1 daily=PV_Shape_1_1 VarFollowInverter=yes %cutin=0.1 %cutout=0.1 TDaily=MyTemp
new PVSystem.PVLVN_1_28 phases=3 bus1=LVN_1_b183.1.2.3 kV=0.4 kva=3.5 pf=1 pmpp=3.15 temperature=25 irrad=1 EFFCURVE=Myeff P-TCURVE=MyPvsT model=1 daily=PV_Shape_1_1 VarFollowInverter=yes %cutin=0.1 %cutout=0.1 TDaily=MyTemp
new PVSystem.PVLVN_1_29 phases=3 bus1=LVN_1_b277.1.2.3 kV=0.4 kva=4.5 pf=1 pmpp=4.05 temperature=25 irrad=1 EFFCURVE=Myeff P-TCURVE=MyPvsT model=1 daily=PV_Shape_1_1 VarFollowInverter=yes %cutin=0.1 %cutout=0.1 TDaily=MyTemp
new PVSystem.PVLVN_1_30 phases=3 bus1=LVN_1_b38.1.2.3 kV=0.4 kva=8.5 pf=1 pmpp=7.65 temperature=25 irrad=1 EFFCURVE=Myeff P-TCURVE=MyPvsT model=1 daily=PV_Shape_1_1 VarFollowInverter=yes %cutin=0.1 %cutout=0.1 TDaily=MyTemp
new PVSystem.PVLVN_1_31 phases=3 bus1=LVN_1_b361.1.2.3 kV=0.4 kva=8.5 pf=1 pmpp=7.65 temperature=25 irrad=1 EFFCURVE=Myeff P-TCURVE=MyPvsT model=1 daily=PV_Shape_1_1 VarFollowInverter=yes %cutin=0.1 %cutout=0.1 TDaily=MyTemp
new PVSystem.PVLVN_1_32 phases=3 bus1=LVN_1_b345.1.2.3 kV=0.4 kva=5.5 pf=1 pmpp=4.95 temperature=25 irrad=1 EFFCURVE=Myeff P-TCURVE=MyPvsT model=1 daily=PV_Shape_1_1 VarFollowInverter=yes %cutin=0.1 %cutout=0.1 TDaily=MyTemp
new PVSystem.PVLVN_1_33 phases=3 bus1=LVN_1_b130.1.2.3 kV=0.4 kva=6.5 pf=1 pmpp=5.85 temperature=25 irrad=1 EFFCURVE=Myeff P-TCURVE=MyPvsT model=1 daily=PV_Shape_1_1 VarFollowInverter=yes %cutin=0.1 %cutout=0.1 TDaily=MyTemp
new PVSystem.PVLVN_1_34 phases=3 bus1=LVN_1_b298.1.2.3 kV=0.4 kva=6.5 pf=1 pmpp=5.85 temperature=25 irrad=1 EFFCURVE=Myeff P-TCURVE=MyPvsT model=1 daily=PV_Shape_1_1 VarFollowInverter=yes %cutin=0.1 %cutout=0.1 TDaily=MyTemp
new PVSystem.PVLVN_1_35 phases=3 bus1=LVN_1_b103.1.2.3 kV=0.4 kva=7.5 pf=1 pmpp=6.75 temperature=25 irrad=1 EFFCURVE=Myeff P-TCURVE=MyPvsT model=1 daily=PV_Shape_1_1 VarFollowInverter=yes %cutin=0.1 %cutout=0.1 TDaily=MyTemp
new PVSystem.PVLVN_1_36 phases=3 bus1=LVN_1_b287.1.2.3 kV=0.4 kva=8.5 pf=1 pmpp=7.65 temperature=25 irrad=1 EFFCURVE=Myeff P-TCURVE=MyPvsT model=1 daily=PV_Shape_1_1 VarFollowInverter=yes %cutin=0.1 %cutout=0.1 TDaily=MyTemp
new PVSystem.PVLVN_1_37 phases=3 bus1=LVN_1_b44.1.2.3 kV=0.4 kva=3.5 pf=1 pmpp=3.15 temperature=25 irrad=1 EFFCURVE=Myeff P-TCURVE=MyPvsT model=1 daily=PV_Shape_1_1 VarFollowInverter=yes %cutin=0.1 %cutout=0.1 TDaily=MyTemp
new PVSystem.PVLVN_1_38 phases=3 bus1=LVN_1_b167.1.2.3 kV=0.4 kva=8.5 pf=1 pmpp=7.65 temperature=25 irrad=1 EFFCURVE=Myeff P-TCURVE=MyPvsT model=1 daily=PV_Shape_1_1 VarFollowInverter=yes %cutin=0.1 %cutout=0.1 TDaily=MyTemp
New InvControl.InvPVLVN_1_1 PVSystemList=PVLVN_1_1 mode=VOLTVAR voltage_curvex_ref=rated avgwindowlen=100m vvc_curve1=myvv_curve DeltaQ_factor=0.4 EventLog=yes VV_RefReactivePower=VARMAX_WATTS VarChangeTolerance=0.025 hysteresis_offset=-0.000 VoltageChangeTolerance=0.001
New InvControl.InvPVLVN_1_2 PVSystemList=PVLVN_1_2 mode=VOLTVAR voltage_curvex_ref=rated avgwindowlen=100m vvc_curve1=myvv_curve DeltaQ_factor=0.4 EventLog=yes VV_RefReactivePower=VARMAX_WATTS VarChangeTolerance=0.025 hysteresis_offset=-0.000 VoltageChangeTolerance=0.001
New InvControl.InvPVLVN_1_3 PVSystemList=PVLVN_1_3 mode=VOLTVAR voltage_curvex_ref=rated avgwindowlen=100m vvc_curve1=myvv_curve DeltaQ_factor=0.4 EventLog=yes VV_RefReactivePower=VARMAX_WATTS VarChangeTolerance=0.025 hysteresis_offset=-0.000 VoltageChangeTolerance=0.001
New InvControl.InvPVLVN_1_4 PVSystemList=PVLVN_1_4 mode=VOLTVAR voltage_curvex_ref=rated avgwindowlen=100m vvc_curve1=myvv_curve DeltaQ_factor=0.4 EventLog=yes VV_RefReactivePower=VARMAX_WATTS VarChangeTolerance=0.025 hysteresis_offset=-0.000 VoltageChangeTolerance=0.001
New InvControl.InvPVLVN_1_5 PVSystemList=PVLVN_1_5 mode=VOLTVAR voltage_curvex_ref=rated avgwindowlen=100m vvc_curve1=myvv_curve DeltaQ_factor=0.4 EventLog=yes VV_RefReactivePower=VARMAX_WATTS VarChangeTolerance=0.025 hysteresis_offset=-0.000 VoltageChangeTolerance=0.001
New InvControl.InvPVLVN_1_6 PVSystemList=PVLVN_1_6 mode=VOLTVAR voltage_curvex_ref=rated avgwindowlen=100m vvc_curve1=myvv_curve DeltaQ_factor=0.4 EventLog=yes VV_RefReactivePower=VARMAX_WATTS VarChangeTolerance=0.025 hysteresis_offset=-0.000 VoltageChangeTolerance=0.001
New InvControl.InvPVLVN_1_7 PVSystemList=PVLVN_1_7 mode=VOLTVAR voltage_curvex_ref=rated avgwindowlen=100m vvc_curve1=myvv_curve DeltaQ_factor=0.4 EventLog=yes VV_RefReactivePower=VARMAX_WATTS VarChangeTolerance=0.025 hysteresis_offset=-0.000 VoltageChangeTolerance=0.001
New InvControl.InvPVLVN_1_8 PVSystemList=PVLVN_1_8 mode=VOLTVAR voltage_curvex_ref=rated avgwindowlen=100m vvc_curve1=myvv_curve DeltaQ_factor=0.4 EventLog=yes VV_RefReactivePower=VARMAX_WATTS VarChangeTolerance=0.025 hysteresis_offset=-0.000 VoltageChangeTolerance=0.001
New InvControl.InvPVLVN_1_9 PVSystemList=PVLVN_1_9 mode=VOLTVAR voltage_curvex_ref=rated avgwindowlen=100m vvc_curve1=myvv_curve DeltaQ_factor=0.4 EventLog=yes VV_RefReactivePower=VARMAX_WATTS VarChangeTolerance=0.025 hysteresis_offset=-0.000 VoltageChangeTolerance=0.001
New InvControl.InvPVLVN_1_10 PVSystemList=PVLVN_1_10 mode=VOLTVAR voltage_curvex_ref=rated avgwindowlen=100m vvc_curve1=myvv_curve DeltaQ_factor=0.4 EventLog=yes VV_RefReactivePower=VARMAX_WATTS VarChangeTolerance=0.025 hysteresis_offset=-0.000 VoltageChangeTolerance=0.001
New InvControl.InvPVLVN_1_11 PVSystemList=PVLVN_1_11 mode=VOLTVAR voltage_curvex_ref=rated avgwindowlen=100m vvc_curve1=myvv_curve DeltaQ_factor=0.4 EventLog=yes VV_RefReactivePower=VARMAX_WATTS VarChangeTolerance=0.025 hysteresis_offset=-0.000 VoltageChangeTolerance=0.001
New InvControl.InvPVLVN_1_12 PVSystemList=PVLVN_1_12 mode=VOLTVAR voltage_curvex_ref=rated avgwindowlen=100m vvc_curve1=myvv_curve DeltaQ_factor=0.4 EventLog=yes VV_RefReactivePower=VARMAX_WATTS VarChangeTolerance=0.025 hysteresis_offset=-0.000 VoltageChangeTolerance=0.001
New InvControl.InvPVLVN_1_13 PVSystemList=PVLVN_1_13 mode=VOLTVAR voltage_curvex_ref=rated avgwindowlen=100m vvc_curve1=myvv_curve DeltaQ_factor=0.4 EventLog=yes VV_RefReactivePower=VARMAX_WATTS VarChangeTolerance=0.025 hysteresis_offset=-0.000 VoltageChangeTolerance=0.001
New InvControl.InvPVLVN_1_14 PVSystemList=PVLVN_1_14 mode=VOLTVAR voltage_curvex_ref=rated avgwindowlen=100m vvc_curve1=myvv_curve DeltaQ_factor=0.4 EventLog=yes VV_RefReactivePower=VARMAX_WATTS VarChangeTolerance=0.025 hysteresis_offset=-0.000 VoltageChangeTolerance=0.001
New InvControl.InvPVLVN_1_15 PVSystemList=PVLVN_1_15 mode=VOLTVAR voltage_curvex_ref=rated avgwindowlen=100m vvc_curve1=myvv_curve DeltaQ_factor=0.4 EventLog=yes VV_RefReactivePower=VARMAX_WATTS VarChangeTolerance=0.025 hysteresis_offset=-0.000 VoltageChangeTolerance=0.001
New InvControl.InvPVLVN_1_16 PVSystemList=PVLVN_1_16 mode=VOLTVAR voltage_curvex_ref=rated avgwindowlen=100m vvc_curve1=myvv_curve DeltaQ_factor=0.4 EventLog=yes VV_RefReactivePower=VARMAX_WATTS VarChangeTolerance=0.025 hysteresis_offset=-0.000 VoltageChangeTolerance=0.001
New InvControl.InvPVLVN_1_17 PVSystemList=PVLVN_1_17 mode=VOLTVAR voltage_curvex_ref=rated avgwindowlen=100m vvc_curve1=myvv_curve DeltaQ_factor=0.4 EventLog=yes VV_RefReactivePower=VARMAX_WATTS VarChangeTolerance=0.025 hysteresis_offset=-0.000 VoltageChangeTolerance=0.001
New InvControl.InvPVLVN_1_18 PVSystemList=PVLVN_1_18 mode=VOLTVAR voltage_curvex_ref=rated avgwindowlen=100m vvc_curve1=myvv_curve DeltaQ_factor=0.4 EventLog=yes VV_RefReactivePower=VARMAX_WATTS VarChangeTolerance=0.025 hysteresis_offset=-0.000 VoltageChangeTolerance=0.001
New InvControl.InvPVLVN_1_19 PVSystemList=PVLVN_1_19 mode=VOLTVAR voltage_curvex_ref=rated avgwindowlen=100m vvc_curve1=myvv_curve DeltaQ_factor=0.4 EventLog=yes VV_RefReactivePower=VARMAX_WATTS VarChangeTolerance=0.025 hysteresis_offset=-0.000 VoltageChangeTolerance=0.001
New InvControl.InvPVLVN_1_20 PVSystemList=PVLVN_1_20 mode=VOLTVAR voltage_curvex_ref=rated avgwindowlen=100m vvc_curve1=myvv_curve DeltaQ_factor=0.4 EventLog=yes VV_RefReactivePower=VARMAX_WATTS VarChangeTolerance=0.025 hysteresis_offset=-0.000 VoltageChangeTolerance=0.001
New InvControl.InvPVLVN_1_21 PVSystemList=PVLVN_1_21 mode=VOLTVAR voltage_curvex_ref=rated avgwindowlen=100m vvc_curve1=myvv_curve DeltaQ_factor=0.4 EventLog=yes VV_RefReactivePower=VARMAX_WATTS VarChangeTolerance=0.025 hysteresis_offset=-0.000 VoltageChangeTolerance=0.001
New InvControl.InvPVLVN_1_22 PVSystemList=PVLVN_1_22 mode=VOLTVAR voltage_curvex_ref=rated avgwindowlen=100m vvc_curve1=myvv_curve DeltaQ_factor=0.4 EventLog=yes VV_RefReactivePower=VARMAX_WATTS VarChangeTolerance=0.025 hysteresis_offset=-0.000 VoltageChangeTolerance=0.001
New InvControl.InvPVLVN_1_23 PVSystemList=PVLVN_1_23 mode=VOLTVAR voltage_curvex_ref=rated avgwindowlen=100m vvc_curve1=myvv_curve DeltaQ_factor=0.4 EventLog=yes VV_RefReactivePower=VARMAX_WATTS VarChangeTolerance=0.025 hysteresis_offset=-0.000 VoltageChangeTolerance=0.001
New InvControl.InvPVLVN_1_24 PVSystemList=PVLVN_1_24 mode=VOLTVAR voltage_curvex_ref=rated avgwindowlen=100m vvc_curve1=myvv_curve DeltaQ_factor=0.4 EventLog=yes VV_RefReactivePower=VARMAX_WATTS VarChangeTolerance=0.025 hysteresis_offset=-0.000 VoltageChangeTolerance=0.001
New InvControl.InvPVLVN_1_25 PVSystemList=PVLVN_1_25 mode=VOLTVAR voltage_curvex_ref=rated avgwindowlen=100m vvc_curve1=myvv_curve DeltaQ_factor=0.4 EventLog=yes VV_RefReactivePower=VARMAX_WATTS VarChangeTolerance=0.025 hysteresis_offset=-0.000 VoltageChangeTolerance=0.001
New InvControl.InvPVLVN_1_26 PVSystemList=PVLVN_1_26 mode=VOLTVAR voltage_curvex_ref=rated avgwindowlen=100m vvc_curve1=myvv_curve DeltaQ_factor=0.4 EventLog=yes VV_RefReactivePower=VARMAX_WATTS VarChangeTolerance=0.025 hysteresis_offset=-0.000 VoltageChangeTolerance=0.001
New InvControl.InvPVLVN_1_27 PVSystemList=PVLVN_1_27 mode=VOLTVAR voltage_curvex_ref=rated avgwindowlen=100m vvc_curve1=myvv_curve DeltaQ_factor=0.4 EventLog=yes VV_RefReactivePower=VARMAX_WATTS VarChangeTolerance=0.025 hysteresis_offset=-0.000 VoltageChangeTolerance=0.001
New InvControl.InvPVLVN_1_28 PVSystemList=PVLVN_1_28 mode=VOLTVAR voltage_curvex_ref=rated avgwindowlen=100m vvc_curve1=myvv_curve DeltaQ_factor=0.4 EventLog=yes VV_RefReactivePower=VARMAX_WATTS VarChangeTolerance=0.025 hysteresis_offset=-0.000 VoltageChangeTolerance=0.001
New InvControl.InvPVLVN_1_29 PVSystemList=PVLVN_1_29 mode=VOLTVAR voltage_curvex_ref=rated avgwindowlen=100m vvc_curve1=myvv_curve DeltaQ_factor=0.4 EventLog=yes VV_RefReactivePower=VARMAX_WATTS VarChangeTolerance=0.025 hysteresis_offset=-0.000 VoltageChangeTolerance=0.001
New InvControl.InvPVLVN_1_30 PVSystemList=PVLVN_1_30 mode=VOLTVAR voltage_curvex_ref=rated avgwindowlen=100m vvc_curve1=myvv_curve DeltaQ_factor=0.4 EventLog=yes VV_RefReactivePower=VARMAX_WATTS VarChangeTolerance=0.025 hysteresis_offset=-0.000 VoltageChangeTolerance=0.001
New InvControl.InvPVLVN_1_31 PVSystemList=PVLVN_1_31 mode=VOLTVAR voltage_curvex_ref=rated avgwindowlen=100m vvc_curve1=myvv_curve DeltaQ_factor=0.4 EventLog=yes VV_RefReactivePower=VARMAX_WATTS VarChangeTolerance=0.025 hysteresis_offset=-0.000 VoltageChangeTolerance=0.001
New InvControl.InvPVLVN_1_32 PVSystemList=PVLVN_1_32 mode=VOLTVAR voltage_curvex_ref=rated avgwindowlen=100m vvc_curve1=myvv_curve DeltaQ_factor=0.4 EventLog=yes VV_RefReactivePower=VARMAX_WATTS VarChangeTolerance=0.025 hysteresis_offset=-0.000 VoltageChangeTolerance=0.001
New InvControl.InvPVLVN_1_33 PVSystemList=PVLVN_1_33 mode=VOLTVAR voltage_curvex_ref=rated avgwindowlen=100m vvc_curve1=myvv_curve DeltaQ_factor=0.4 EventLog=yes VV_RefReactivePower=VARMAX_WATTS VarChangeTolerance=0.025 hysteresis_offset=-0.000 VoltageChangeTolerance=0.001
New InvControl.InvPVLVN_1_34 PVSystemList=PVLVN_1_34 mode=VOLTVAR voltage_curvex_ref=rated avgwindowlen=100m vvc_curve1=myvv_curve DeltaQ_factor=0.4 EventLog=yes VV_RefReactivePower=VARMAX_WATTS VarChangeTolerance=0.025 hysteresis_offset=-0.000 VoltageChangeTolerance=0.001
New InvControl.InvPVLVN_1_35 PVSystemList=PVLVN_1_35 mode=VOLTVAR voltage_curvex_ref=rated avgwindowlen=100m vvc_curve1=myvv_curve DeltaQ_factor=0.4 EventLog=yes VV_RefReactivePower=VARMAX_WATTS VarChangeTolerance=0.025 hysteresis_offset=-0.000 VoltageChangeTolerance=0.001
New InvControl.InvPVLVN_1_36 PVSystemList=PVLVN_1_36 mode=VOLTVAR voltage_curvex_ref=rated avgwindowlen=100m vvc_curve1=myvv_curve DeltaQ_factor=0.4 EventLog=yes VV_RefReactivePower=VARMAX_WATTS VarChangeTolerance=0.025 hysteresis_offset=-0.000 VoltageChangeTolerance=0.001
New InvControl.InvPVLVN_1_37 PVSystemList=PVLVN_1_37 mode=VOLTVAR voltage_curvex_ref=rated avgwindowlen=100m vvc_curve1=myvv_curve DeltaQ_factor=0.4 EventLog=yes VV_RefReactivePower=VARMAX_WATTS VarChangeTolerance=0.025 hysteresis_offset=-0.000 VoltageChangeTolerance=0.001
New InvControl.InvPVLVN_1_38 PVSystemList=PVLVN_1_38 mode=VOLTVAR voltage_curvex_ref=rated avgwindowlen=100m vvc_curve1=myvv_curve DeltaQ_factor=0.4 EventLog=yes VV_RefReactivePower=VARMAX_WATTS VarChangeTolerance=0.025 hysteresis_offset=-0.000 VoltageChangeTolerance=0.001
